Version 4
SHEET 1 2644 680
WIRE 528 -32 0 -32
WIRE 768 -32 736 -32
WIRE 912 -32 848 -32
WIRE 912 -16 912 -32
WIRE 1392 -16 912 -16
WIRE 1632 -16 1600 -16
WIRE 1776 -16 1712 -16
WIRE 1776 0 1776 -16
WIRE 2240 0 1776 0
WIRE 2480 0 2448 0
WIRE 2624 0 2560 0
WIRE 0 48 0 -32
WIRE 0 48 -16 48
WIRE 48 48 0 48
WIRE 240 48 128 48
WIRE 272 48 240 48
WIRE 528 48 528 -32
WIRE 640 48 528 48
WIRE 736 48 736 -32
WIRE 736 48 720 48
WIRE 768 48 736 48
WIRE 864 64 832 64
WIRE 912 64 912 -16
WIRE 912 64 864 64
WIRE 1104 64 992 64
WIRE 1136 64 1104 64
WIRE 1392 64 1392 -16
WIRE 1504 64 1392 64
WIRE 1600 64 1600 -16
WIRE 1600 64 1584 64
WIRE 1632 64 1600 64
WIRE 272 80 272 48
WIRE 272 80 240 80
WIRE 288 80 272 80
WIRE 528 80 288 80
WIRE 768 80 608 80
WIRE 1728 80 1696 80
WIRE 1776 80 1776 0
WIRE 1776 80 1728 80
WIRE 1856 80 1840 80
WIRE 1952 80 1856 80
WIRE 1984 80 1952 80
WIRE 2240 80 2240 0
WIRE 2352 80 2240 80
WIRE 2448 80 2448 0
WIRE 2448 80 2432 80
WIRE 2480 80 2448 80
WIRE -16 96 -16 48
WIRE 240 96 240 80
WIRE 288 96 288 80
WIRE 912 96 912 64
WIRE 1136 96 1136 64
WIRE 1136 96 1104 96
WIRE 1152 96 1136 96
WIRE 1392 96 1152 96
WIRE 1632 96 1472 96
WIRE 2576 96 2544 96
WIRE 2624 96 2624 0
WIRE 2624 96 2576 96
WIRE 1104 112 1104 96
WIRE 1152 112 1152 96
WIRE 1776 112 1776 80
WIRE 1984 112 1984 80
WIRE 1984 112 1952 112
WIRE 2000 112 1984 112
WIRE 2240 112 2000 112
WIRE 2480 112 2320 112
WIRE 1952 128 1952 112
WIRE 2000 128 2000 112
WIRE 2624 128 2624 96
WIRE 288 176 288 160
WIRE 240 192 240 176
WIRE 1152 192 1152 176
WIRE 1104 208 1104 192
WIRE 2000 208 2000 192
WIRE 1952 224 1952 208
WIRE 240 272 240 256
WIRE 256 272 240 272
WIRE 288 272 288 256
WIRE 288 272 256 272
WIRE 256 288 256 272
WIRE 1104 288 1104 272
WIRE 1120 288 1104 288
WIRE 1152 288 1152 272
WIRE 1152 288 1120 288
WIRE 1120 304 1120 288
WIRE 1952 304 1952 288
WIRE 1968 304 1952 304
WIRE 2000 304 2000 288
WIRE 2000 304 1968 304
WIRE 1968 320 1968 304
FLAG -16 176 0
FLAG 0 48 vin
FLAG 240 48 clip1
FLAG 912 176 0
FLAG 256 368 0
FLAG 864 64 vout1
FLAG 1104 64 clip2
FLAG 1776 192 0
FLAG 1120 384 0
FLAG 1728 80 vout2
FLAG 1952 80 clip3
FLAG 2624 208 0
FLAG 1968 400 0
FLAG 2576 96 vout3
SYMBOL voltage -16 80 R0
WINDOW 123 0 0 Left 0
WINDOW 39 0 0 Left 0
SYMATTR InstName V1
SYMATTR Value SINE(0 10 1k)
SYMBOL res 144 32 R90
WINDOW 0 0 56 VBottom 2
WINDOW 3 32 56 VTop 2
SYMATTR InstName R1
SYMATTR Value 100
SYMBOL diode 272 96 R0
SYMATTR InstName D1
SYMATTR Value 1N4148
SYMBOL diode 256 256 R180
WINDOW 0 24 64 Left 2
WINDOW 3 24 0 Left 2
SYMATTR InstName D2
SYMATTR Value 1N4148
SYMBOL OpAmps\\opamp 800 0 R0
SYMATTR InstName U1
SYMBOL res 736 32 R90
WINDOW 0 0 56 VBottom 2
WINDOW 3 32 56 VTop 2
SYMATTR InstName R2
SYMATTR Value 10k
SYMBOL res 864 -48 R90
WINDOW 0 0 56 VBottom 2
WINDOW 3 32 56 VTop 2
SYMATTR InstName R3
SYMATTR Value 10k
SYMBOL res 928 192 R180
WINDOW 0 36 76 Left 2
WINDOW 3 36 40 Left 2
SYMATTR InstName R4
SYMATTR Value 1Meg
SYMBOL res 624 64 R90
WINDOW 0 0 56 VBottom 2
WINDOW 3 32 56 VTop 2
SYMATTR InstName R5
SYMATTR Value 10k
SYMBOL voltage 240 192 R180
WINDOW 0 24 96 Left 2
WINDOW 3 24 16 Left 2
WINDOW 123 0 0 Left 0
WINDOW 39 0 0 Left 0
SYMATTR InstName V3
SYMATTR Value 0
SYMBOL voltage 288 160 R0
WINDOW 123 0 0 Left 0
WINDOW 39 0 0 Left 0
SYMATTR InstName V4
SYMATTR Value 0
SYMBOL res 240 272 R0
SYMATTR InstName R6
SYMATTR Value 0
SYMBOL res 1008 48 R90
WINDOW 0 0 56 VBottom 2
WINDOW 3 32 56 VTop 2
SYMATTR InstName R7
SYMATTR Value 100
SYMBOL diode 1136 112 R0
SYMATTR InstName D3
SYMATTR Value 1N4148
SYMBOL diode 1120 272 R180
WINDOW 0 24 64 Left 2
WINDOW 3 24 0 Left 2
SYMATTR InstName D4
SYMATTR Value 1N4148
SYMBOL OpAmps\\opamp 1664 16 R0
SYMATTR InstName U2
SYMBOL res 1600 48 R90
WINDOW 0 0 56 VBottom 2
WINDOW 3 32 56 VTop 2
SYMATTR InstName R8
SYMATTR Value 10k
SYMBOL res 1728 -32 R90
WINDOW 0 0 56 VBottom 2
WINDOW 3 32 56 VTop 2
SYMATTR InstName R9
SYMATTR Value 10k
SYMBOL res 1792 208 R180
WINDOW 0 36 76 Left 2
WINDOW 3 36 40 Left 2
SYMATTR InstName R10
SYMATTR Value 1Meg
SYMBOL res 1488 80 R90
WINDOW 0 0 56 VBottom 2
WINDOW 3 32 56 VTop 2
SYMATTR InstName R11
SYMATTR Value 10k
SYMBOL voltage 1104 208 R180
WINDOW 0 24 96 Left 2
WINDOW 3 24 16 Left 2
WINDOW 123 0 0 Left 0
WINDOW 39 0 0 Left 0
SYMATTR InstName V2
SYMATTR Value 0
SYMBOL voltage 1152 176 R0
WINDOW 123 0 0 Left 0
WINDOW 39 0 0 Left 0
SYMATTR InstName V5
SYMATTR Value 0
SYMBOL res 1104 288 R0
SYMATTR InstName R12
SYMATTR Value 0
SYMBOL diode 1984 128 R0
SYMATTR InstName D5
SYMATTR Value 1N4148
SYMBOL diode 1968 288 R180
WINDOW 0 24 64 Left 2
WINDOW 3 24 0 Left 2
SYMATTR InstName D6
SYMATTR Value 1N4148
SYMBOL OpAmps\\opamp 2512 32 R0
SYMATTR InstName U3
SYMBOL res 2448 64 R90
WINDOW 0 0 56 VBottom 2
WINDOW 3 32 56 VTop 2
SYMATTR InstName R13
SYMATTR Value 10k
SYMBOL res 2576 -16 R90
WINDOW 0 0 56 VBottom 2
WINDOW 3 32 56 VTop 2
SYMATTR InstName R14
SYMATTR Value 10k
SYMBOL res 2640 224 R180
WINDOW 0 36 76 Left 2
WINDOW 3 36 40 Left 2
SYMATTR InstName R15
SYMATTR Value 1Meg
SYMBOL res 2336 96 R90
WINDOW 0 0 56 VBottom 2
WINDOW 3 32 56 VTop 2
SYMATTR InstName R16
SYMATTR Value 10k
SYMBOL voltage 1952 224 R180
WINDOW 0 24 96 Left 2
WINDOW 3 24 16 Left 2
WINDOW 123 0 0 Left 0
WINDOW 39 0 0 Left 0
SYMATTR InstName V6
SYMATTR Value 0
SYMBOL voltage 2000 192 R0
WINDOW 123 0 0 Left 0
WINDOW 39 0 0 Left 0
SYMATTR InstName V7
SYMATTR Value .69
SYMBOL res 1952 304 R0
SYMATTR InstName R17
SYMATTR Value 0
SYMBOL res 1872 64 R90
WINDOW 0 0 56 VBottom 2
WINDOW 3 32 56 VTop 2
SYMATTR InstName R18
SYMATTR Value 100
TEXT -48 216 Left 2 !.tran 0.01
TEXT 672 264 Left 2 !.lib opamp.sub
