Version 4
SHEET 1 2644 1316
WIRE -96 -48 -496 -48
WIRE 144 -48 112 -48
WIRE 288 -48 224 -48
WIRE 448 -48 416 -48
WIRE 560 -48 528 -48
WIRE -592 32 -608 32
WIRE -496 32 -496 -48
WIRE -496 32 -592 32
WIRE -448 32 -496 32
WIRE -256 32 -368 32
WIRE -224 32 -256 32
WIRE -96 32 -96 -48
WIRE 16 32 -96 32
WIRE 112 32 112 -48
WIRE 112 32 96 32
WIRE 144 32 112 32
WIRE 240 48 208 48
WIRE 256 48 240 48
WIRE 288 48 288 -48
WIRE 288 48 256 48
WIRE 320 48 288 48
WIRE 416 48 416 -48
WIRE 416 48 400 48
WIRE 448 48 416 48
WIRE -224 64 -224 32
WIRE -224 64 -256 64
WIRE -208 64 -224 64
WIRE -96 64 -208 64
WIRE 144 64 -16 64
WIRE 560 64 560 -48
WIRE 560 64 512 64
WIRE 656 64 560 64
WIRE 736 64 656 64
WIRE -256 80 -256 64
WIRE -208 80 -208 64
WIRE 448 80 416 80
WIRE -208 160 -208 144
WIRE 416 160 416 80
WIRE -256 176 -256 160
WIRE -256 256 -256 240
WIRE -240 256 -256 256
WIRE -208 256 -208 240
WIRE -208 256 -240 256
WIRE -240 272 -240 256
WIRE -96 416 -496 416
WIRE 144 416 112 416
WIRE 288 416 224 416
WIRE 448 416 416 416
WIRE 560 416 528 416
WIRE -592 496 -608 496
WIRE -496 496 -496 416
WIRE -496 496 -592 496
WIRE -448 496 -496 496
WIRE -256 496 -368 496
WIRE -224 496 -256 496
WIRE -96 496 -96 416
WIRE 16 496 -96 496
WIRE 112 496 112 416
WIRE 112 496 96 496
WIRE 144 496 112 496
WIRE 256 512 208 512
WIRE 288 512 288 416
WIRE 288 512 256 512
WIRE 320 512 288 512
WIRE 416 512 416 416
WIRE 416 512 400 512
WIRE 448 512 416 512
WIRE -224 528 -224 496
WIRE -224 528 -256 528
WIRE -208 528 -224 528
WIRE -96 528 -208 528
WIRE 144 528 -16 528
WIRE 560 528 560 416
WIRE 560 528 512 528
WIRE 656 528 560 528
WIRE 736 528 656 528
WIRE -256 544 -256 528
WIRE -208 544 -208 528
WIRE 448 544 416 544
WIRE -208 624 -208 608
WIRE 416 624 416 544
WIRE -256 640 -256 624
WIRE -256 720 -256 704
WIRE -240 720 -256 720
WIRE -208 720 -208 704
WIRE -208 720 -240 720
WIRE -240 736 -240 720
WIRE -112 896 -512 896
WIRE 128 896 96 896
WIRE 272 896 208 896
WIRE 432 896 400 896
WIRE 544 896 512 896
WIRE -608 976 -624 976
WIRE -512 976 -512 896
WIRE -512 976 -608 976
WIRE -464 976 -512 976
WIRE -272 976 -384 976
WIRE -240 976 -272 976
WIRE -112 976 -112 896
WIRE 0 976 -112 976
WIRE 96 976 96 896
WIRE 96 976 80 976
WIRE 128 976 96 976
WIRE 240 992 192 992
WIRE 272 992 272 896
WIRE 272 992 240 992
WIRE 304 992 272 992
WIRE 400 992 400 896
WIRE 400 992 384 992
WIRE 432 992 400 992
WIRE -240 1008 -240 976
WIRE -240 1008 -272 1008
WIRE -224 1008 -240 1008
WIRE -112 1008 -224 1008
WIRE 128 1008 -32 1008
WIRE 544 1008 544 896
WIRE 544 1008 496 1008
WIRE 640 1008 544 1008
WIRE 720 1008 640 1008
WIRE -272 1024 -272 1008
WIRE -224 1024 -224 1008
WIRE 432 1024 400 1024
WIRE -224 1104 -224 1088
WIRE 400 1104 400 1024
WIRE -272 1120 -272 1104
WIRE -272 1200 -272 1184
WIRE -256 1200 -272 1200
WIRE -224 1200 -224 1184
WIRE -224 1200 -256 1200
WIRE -256 1216 -256 1200
FLAG -928 176 0
FLAG -592 32 vin
FLAG -256 32 clip1
FLAG -240 352 0
FLAG 240 48 vout1
FLAG 416 160 0
FLAG 256 128 0
FLAG -928 96 vin
FLAG 656 64 vout1
FLAG -592 496 vout1
FLAG -256 496 clip2
FLAG -240 816 0
FLAG 416 624 0
FLAG 256 592 0
FLAG 656 528 vout2
FLAG -608 976 vout2
FLAG -272 976 clip3
FLAG -256 1296 0
FLAG 400 1104 0
FLAG 240 1072 0
FLAG 640 1008 vout3
SYMBOL voltage -928 80 R0
WINDOW 123 0 0 Left 0
WINDOW 39 0 0 Left 0
SYMATTR InstName V1
SYMATTR Value SINE(0 3 1k)
SYMBOL res -352 16 R90
WINDOW 0 0 56 VBottom 2
WINDOW 3 32 56 VTop 2
SYMATTR InstName R1
SYMATTR Value 100
SYMBOL diode -224 80 R0
SYMATTR InstName D1
SYMATTR Value 1N4148
SYMBOL diode -240 240 R180
WINDOW 0 24 64 Left 2
WINDOW 3 24 0 Left 2
SYMATTR InstName D2
SYMATTR Value 1N4148
SYMBOL OpAmps\\opamp 176 -16 R0
SYMATTR InstName U1
SYMBOL res 112 16 R90
WINDOW 0 0 56 VBottom 2
WINDOW 3 32 56 VTop 2
SYMATTR InstName R2
SYMATTR Value 10k
SYMBOL res 240 -64 R90
WINDOW 0 0 56 VBottom 2
WINDOW 3 32 56 VTop 2
SYMATTR InstName R3
SYMATTR Value 10k
SYMBOL res 0 48 R90
WINDOW 0 0 56 VBottom 2
WINDOW 3 32 56 VTop 2
SYMATTR InstName R5
SYMATTR Value 10k
SYMBOL voltage -256 176 R180
WINDOW 0 24 96 Left 2
WINDOW 3 24 16 Left 2
WINDOW 123 0 0 Left 0
WINDOW 39 0 0 Left 0
SYMATTR InstName V3
SYMATTR Value 0
SYMBOL voltage -208 144 R0
WINDOW 123 0 0 Left 0
WINDOW 39 0 0 Left 0
SYMATTR InstName V4
SYMATTR Value 0
SYMBOL res -256 256 R0
SYMATTR InstName R6
SYMATTR Value 0
SYMBOL OpAmps\\opamp 480 0 R0
SYMATTR InstName U4
SYMBOL res 416 32 R90
WINDOW 0 0 56 VBottom 2
WINDOW 3 32 56 VTop 2
SYMATTR InstName R4
SYMATTR Value 10k
SYMBOL res 544 -64 R90
WINDOW 0 0 56 VBottom 2
WINDOW 3 32 56 VTop 2
SYMATTR InstName R19
SYMATTR Value 10k
SYMBOL res 240 32 R0
SYMATTR InstName R20
SYMATTR Value 1Meg
SYMBOL res -352 480 R90
WINDOW 0 0 56 VBottom 2
WINDOW 3 32 56 VTop 2
SYMATTR InstName R7
SYMATTR Value 100
SYMBOL diode -224 544 R0
SYMATTR InstName D3
SYMATTR Value 1N4148
SYMBOL diode -240 704 R180
WINDOW 0 24 64 Left 2
WINDOW 3 24 0 Left 2
SYMATTR InstName D4
SYMATTR Value 1N4148
SYMBOL OpAmps\\opamp 176 448 R0
SYMATTR InstName U2
SYMBOL res 112 480 R90
WINDOW 0 0 56 VBottom 2
WINDOW 3 32 56 VTop 2
SYMATTR InstName R8
SYMATTR Value 10k
SYMBOL res 240 400 R90
WINDOW 0 0 56 VBottom 2
WINDOW 3 32 56 VTop 2
SYMATTR InstName R9
SYMATTR Value 10k
SYMBOL res 0 512 R90
WINDOW 0 0 56 VBottom 2
WINDOW 3 32 56 VTop 2
SYMATTR InstName R10
SYMATTR Value 10k
SYMBOL voltage -256 640 R180
WINDOW 0 24 96 Left 2
WINDOW 3 24 16 Left 2
WINDOW 123 0 0 Left 0
WINDOW 39 0 0 Left 0
SYMATTR InstName V2
SYMATTR Value 0
SYMBOL voltage -208 608 R0
WINDOW 123 0 0 Left 0
WINDOW 39 0 0 Left 0
SYMATTR InstName V5
SYMATTR Value 0
SYMBOL res -256 720 R0
SYMATTR InstName R11
SYMATTR Value 0
SYMBOL OpAmps\\opamp 480 464 R0
SYMATTR InstName U3
SYMBOL res 416 496 R90
WINDOW 0 0 56 VBottom 2
WINDOW 3 32 56 VTop 2
SYMATTR InstName R12
SYMATTR Value 10k
SYMBOL res 544 400 R90
WINDOW 0 0 56 VBottom 2
WINDOW 3 32 56 VTop 2
SYMATTR InstName R13
SYMATTR Value 10k
SYMBOL res 240 496 R0
SYMATTR InstName R14
SYMATTR Value 1Meg
SYMBOL res -368 960 R90
WINDOW 0 0 56 VBottom 2
WINDOW 3 32 56 VTop 2
SYMATTR InstName R15
SYMATTR Value 100
SYMBOL diode -240 1024 R0
SYMATTR InstName D5
SYMATTR Value 1N4148
SYMBOL diode -256 1184 R180
WINDOW 0 24 64 Left 2
WINDOW 3 24 0 Left 2
SYMATTR InstName D6
SYMATTR Value 1N4148
SYMBOL OpAmps\\opamp 160 928 R0
SYMATTR InstName U5
SYMBOL res 96 960 R90
WINDOW 0 0 56 VBottom 2
WINDOW 3 32 56 VTop 2
SYMATTR InstName R16
SYMATTR Value 10k
SYMBOL res 224 880 R90
WINDOW 0 0 56 VBottom 2
WINDOW 3 32 56 VTop 2
SYMATTR InstName R17
SYMATTR Value 10k
SYMBOL res -16 992 R90
WINDOW 0 0 56 VBottom 2
WINDOW 3 32 56 VTop 2
SYMATTR InstName R18
SYMATTR Value 10k
SYMBOL voltage -272 1120 R180
WINDOW 0 24 96 Left 2
WINDOW 3 24 16 Left 2
WINDOW 123 0 0 Left 0
WINDOW 39 0 0 Left 0
SYMATTR InstName V6
SYMATTR Value 0
SYMBOL voltage -224 1088 R0
WINDOW 123 0 0 Left 0
WINDOW 39 0 0 Left 0
SYMATTR InstName V7
SYMATTR Value 0
SYMBOL res -272 1200 R0
SYMATTR InstName R21
SYMATTR Value 0
SYMBOL OpAmps\\opamp 464 944 R0
SYMATTR InstName U6
SYMBOL res 400 976 R90
WINDOW 0 0 56 VBottom 2
WINDOW 3 32 56 VTop 2
SYMATTR InstName R22
SYMATTR Value 10k
SYMBOL res 528 880 R90
WINDOW 0 0 56 VBottom 2
WINDOW 3 32 56 VTop 2
SYMATTR InstName R23
SYMATTR Value 10k
SYMBOL res 224 976 R0
SYMATTR InstName R24
SYMATTR Value 1Meg
TEXT -960 216 Left 2 !.tran 0.01
TEXT 176 248 Left 2 !.lib opamp.sub
